<?xml version="1.0" encoding="UTF-8"?>

<!-- generated on 2023-05-28 23:28:05.236729 by gtfs2pt.py v1_16_0+2251-1aba981d8c1
<configuration>
    <gtfs value="/Users/timo/dcaiti_bus/GTFS_filtered.zip"/>
    <date value="20230420"/>
    <modes value="bus"/>
    <vtype-output value="pt_vtypes.xml"/>
    <network value="/Users/timo/best-scenario/scenario/sumo/berlin.net.xml"/>
</configuration>
-->

<additional xmlns:xsi="http://www.w3.org/2001/XMLSchema-instance" xsi:noNamespaceSchemaLocation="http://sumo.dlr.de/xsd/additional_file.xsd">
    <busStop id="756306892:15.34" lane="756306892_0" startPos="2.34" endPos="15.34" friendlyPos="true" name="Memhardstr. (Berlin)"/>
    <busStop id="112128419#1:157.38" lane="112128419#1_0" startPos="144.38" endPos="157.38" friendlyPos="true" name="S+U Alexanderplatz Bhf/Memhardstr. (Berlin)"/>
    <busStop id="415280722:292.44" lane="415280722_0" startPos="279.44" endPos="292.44" friendlyPos="true" name="Spandauer Str./Marienkirche (Berlin)"/>
    <busStop id="61584187#1:45.70" lane="61584187#1_0" startPos="32.70" endPos="45.70" friendlyPos="true" name="U Museumsinsel (Berlin)"/>
    <busStop id="169195795#3:45.66" lane="169195795#3_0" startPos="32.66" endPos="45.66" friendlyPos="true" name="Staatsoper (Berlin)"/>
    <busStop id="188386313#1:50.71" lane="188386313#1_0" startPos="37.71" endPos="50.71" friendlyPos="true" name="U Unter den Linden (Berlin)"/>
    <busStop id="24913304#2:175.23" lane="24913304#2_0" startPos="162.23" endPos="175.23" friendlyPos="true" name="S+U Brandenburger Tor (Berlin)"/>
    <busStop id="-405100404#0:208.46" lane="-405100404#0_0" startPos="195.46" endPos="208.46" friendlyPos="true" name="Reichstag/Bundestag (Berlin)"/>
    <busStop id="-4399488:28.47" lane="-4399488_0" startPos="15.47" endPos="28.47" friendlyPos="true" name="Platz der Republik (Berlin)"/>
    <busStop id="-4399488:536.35" lane="-4399488_0" startPos="523.35" endPos="536.35" friendlyPos="true" name="Haus der Kulturen der Welt (Berlin)"/>
    <busStop id="156341117#0:38.21" lane="156341117#0_0" startPos="25.21" endPos="38.21" friendlyPos="true" name="Schloss Bellevue (Berlin)"/>
    <busStop id="156341117#1:85.93" lane="156341117#1_0" startPos="72.93" endPos="85.93" friendlyPos="true" name="Großer Stern (Berlin)"/>
    <busStop id="24912848#1:29.25" lane="24912848#1_0" startPos="16.25" endPos="29.25" friendlyPos="true" name="Nordische Botschaften/Adenauer-Stiftung (Berlin)"/>
    <busStop id="11406337#1:42.70" lane="11406337#1_0" startPos="29.70" endPos="42.70" friendlyPos="true" name="Lützowplatz (Berlin)"/>
    <busStop id="24912614#1:18.47" lane="24912614#1_0" startPos="5.47" endPos="18.47" friendlyPos="true" name="Schillstr. (Berlin)"/>
    <busStop id="24912614#8:64.03" lane="24912614#8_0" startPos="51.03" endPos="64.03" friendlyPos="true" name="Bayreuther Str. (Berlin)"/>
    <busStop id="24912422#7:56.94" lane="24912422#7_0" startPos="43.94" endPos="56.94" friendlyPos="true" name="Breitscheidplatz (Berlin)"/>
    <busStop id="24912323#1:46.05" lane="24912323#1_0" startPos="33.05" endPos="46.05" friendlyPos="true" name="S+U Zoologischer Garten/Jebensstr. (Berlin)"/>
    <busStop id="-25418282:107.05" lane="-25418282_0" startPos="94.05" endPos="107.05" friendlyPos="true" name="Hertzallee (Berlin)"/>
    <busStop id="32749335:91.40" lane="32749335_0" startPos="78.40" endPos="91.40" friendlyPos="true" name="S+U Zoologischer Garten Bhf (Berlin)"/>
    <busStop id="151525565#3:58.17" lane="151525565#3_0" startPos="45.17" endPos="58.17" friendlyPos="true" name="Breitscheidplatz (Berlin)"/>
    <busStop id="529244460#1:63.93" lane="529244460#1_0" startPos="50.93" endPos="63.93" friendlyPos="true" name="Bayreuther Str. (Berlin)"/>
    <busStop id="188491275#1:148.19" lane="188491275#1_0" startPos="135.19" endPos="148.19" friendlyPos="true" name="Schillstr. (Berlin)"/>
    <busStop id="309600203:39.32" lane="309600203_0" startPos="26.32" endPos="39.32" friendlyPos="true" name="Lützowplatz (Berlin)"/>
    <busStop id="309600201#0:25.61" lane="309600201#0_0" startPos="12.61" endPos="25.61" friendlyPos="true" name="Nordische Botschaften/Adenauer-Stiftung (Berlin)"/>
    <busStop id="376980963#1:23.05" lane="376980963#1_0" startPos="10.05" endPos="23.05" friendlyPos="true" name="Großer Stern (Berlin)"/>
    <busStop id="433867834:170.51" lane="433867834_0" startPos="157.51" endPos="170.51" friendlyPos="true" name="Schloss Bellevue (Berlin)"/>
    <busStop id="623593133#2:581.52" lane="623593133#2_0" startPos="568.52" endPos="581.52" friendlyPos="true" name="Haus der Kulturen der Welt (Berlin)"/>
    <busStop id="623593133#2:1038.88" lane="623593133#2_0" startPos="1025.88" endPos="1038.88" friendlyPos="true" name="Platz der Republik (Berlin)"/>
    <busStop id="67713117#1:377.31" lane="67713117#1_0" startPos="364.31" endPos="377.31" friendlyPos="true" name="Reichstag/Bundestag (Berlin)"/>
    <busStop id="24240246#1:92.93" lane="24240246#1_0" startPos="79.93" endPos="92.93" friendlyPos="true" name="S+U Brandenburger Tor (Berlin)"/>
    <busStop id="461526152#1:61.38" lane="461526152#1_0" startPos="48.38" endPos="61.38" friendlyPos="true" name="U Unter den Linden (Berlin)"/>
    <busStop id="340498982#2:40.38" lane="340498982#2_0" startPos="27.38" endPos="40.38" friendlyPos="true" name="Staatsoper (Berlin)"/>
    <busStop id="831694400:32.21" lane="831694400_0" startPos="19.21" endPos="32.21" friendlyPos="true" name="U Museumsinsel (Berlin)"/>
    <busStop id="72157174#1:42.81" lane="72157174#1_0" startPos="29.81" endPos="42.81" friendlyPos="true" name="Spandauer Str./Marienkirche (Berlin)"/>
    <busStop id="72157174#1:336.46" lane="72157174#1_0" startPos="323.46" endPos="336.46" friendlyPos="true" name="S+U Alexanderplatz Bhf/Memhardstr. (Berlin)"/>
    <busStop id="19002403#1:64.03" lane="19002403#1_0" startPos="51.03" endPos="64.03" friendlyPos="true" name="Memhardstr. (Berlin)"/>
    <busStop id="149522550#2:1283.60" lane="149522550#2_0" startPos="1270.60" endPos="1283.60" friendlyPos="true" name="Sachtlebenstr. (Berlin)"/>
    <busStop id="149522550#2:1305.37" lane="149522550#2_0" startPos="1292.37" endPos="1305.37" friendlyPos="true" name="Sachtlebenstr. (Berlin)"/>
    <busStop id="140336718#1:208.72" lane="140336718#1_0" startPos="195.72" endPos="208.72" friendlyPos="true" name="Windsteiner Weg (Berlin)"/>
    <busStop id="140336718#2:336.08" lane="140336718#2_0" startPos="323.08" endPos="336.08" friendlyPos="true" name="Nieritzweg (Berlin)"/>
    <busStop id="246049143#2:37.07" lane="246049143#2_0" startPos="24.07" endPos="37.07" friendlyPos="true" name="Ludwigsfelder Str./Sachtlebenstr. (Berlin)"/>
    <busStop id="-112408882#10:53.88" lane="-112408882#10_0" startPos="40.88" endPos="53.88" friendlyPos="true" name="Gutzmannstr. (Berlin)"/>
    <busStop id="-112408882#6:23.32" lane="-112408882#6_0" startPos="10.32" endPos="23.32" friendlyPos="true" name="Behring-Krankenhaus (Berlin)"/>
    <busStop id="-112408882#4:200.22" lane="-112408882#4_0" startPos="187.22" endPos="200.22" friendlyPos="true" name="Schrockstr. (Berlin)"/>
    <busStop id="-112408882#0:30.10" lane="-112408882#0_0" startPos="17.10" endPos="30.10" friendlyPos="true" name="Machnower Str./Berlepschstr. (Berlin)"/>
    <busStop id="-61450606#0:87.43" lane="-61450606#0_0" startPos="74.43" endPos="87.43" friendlyPos="true" name="S Zehlendorf (Berlin)"/>
    <busStop id="5364049#2:129.20" lane="5364049#2_0" startPos="116.20" endPos="129.20" friendlyPos="true" name="Berlin, Zehlendorf Eiche"/>
    <busStop id="25199976#1:59.13" lane="25199976#1_0" startPos="46.13" endPos="59.13" friendlyPos="true" name="Berlin, Zehlendorf Eiche"/>
    <busStop id="5364049#2:158.62" lane="5364049#2_0" startPos="145.62" endPos="158.62" friendlyPos="true" name="Berlin, Zehlendorf Eiche"/>
    <busStop id="831660641#2:56.74" lane="831660641#2_0" startPos="43.74" endPos="56.74" friendlyPos="true" name="Kleinaustr. (Berlin)"/>
    <busStop id="831660641#5:130.59" lane="831660641#5_0" startPos="117.59" endPos="130.59" friendlyPos="true" name="Winfriedstr. (Berlin)"/>
    <busStop id="30243828#1:54.45" lane="30243828#1_0" startPos="41.45" endPos="54.45" friendlyPos="true" name="Holländische Mühle (Berlin)"/>
    <busStop id="387454340#0:13.00" lane="387454340#0_0" startPos="0.00" endPos="13.00" friendlyPos="true" name="Thielallee/Dahlemer Weg (Berlin)"/>
    <busStop id="4484277#0:428.64" lane="4484277#0_0" startPos="415.64" endPos="428.64" friendlyPos="true" name="Von-Laue-Str. (Berlin)"/>
    <busStop id="148670264#1:29.07" lane="148670264#1_0" startPos="16.07" endPos="29.07" friendlyPos="true" name="Unter den Eichen/Drakestr. (Berlin)"/>
    <busStop id="25199872#3:135.92" lane="25199872#3_0" startPos="122.92" endPos="135.92" friendlyPos="true" name="Reichensteiner Weg (Berlin)"/>
    <busStop id="25199872#6:79.80" lane="25199872#6_0" startPos="66.80" endPos="79.80" friendlyPos="true" name="Altensteinstr./Fabeckstr. (Berlin)"/>
    <busStop id="25199872#13:17.45" lane="25199872#13_0" startPos="4.45" endPos="17.45" friendlyPos="true" name="Limonenstr. (Berlin)"/>
    <busStop id="149992022#0:13.00" lane="149992022#0_0" startPos="0.00" endPos="13.00" friendlyPos="true" name="Königin-Luise-Platz/Botanischer Garten (Berlin)"/>
    <busStop id="149992022#1:143.45" lane="149992022#1_0" startPos="130.45" endPos="143.45" friendlyPos="true" name="Rohlfsstr. (Berlin)"/>
    <busStop id="25199732#1:25.57" lane="25199732#1_0" startPos="12.57" endPos="25.57" friendlyPos="true" name="Schorlemerallee (Berlin)"/>
    <busStop id="150682836#1:26.68" lane="150682836#1_0" startPos="13.68" endPos="26.68" friendlyPos="true" name="U Breitenbachplatz (Berlin)"/>
    <busStop id="284421835#3:16.88" lane="284421835#3_0" startPos="3.88" endPos="16.88" friendlyPos="true" name="Laubenheimer Str. (Berlin)"/>
    <busStop id="284421835#6:44.57" lane="284421835#6_0" startPos="31.57" endPos="44.57" friendlyPos="true" name="Wiesbadener Str./Laubacher Str. (Berlin)"/>
    <busStop id="-837553910#0:31.88" lane="-837553910#0_0" startPos="18.88" endPos="31.88" friendlyPos="true" name="Deidesheimer Str. (Berlin)"/>
    <busStop id="-332875218#1:45.23" lane="-332875218#1_0" startPos="32.23" endPos="45.23" friendlyPos="true" name="Hanauer Str. (Berlin)"/>
    <busStop id="-4535225#9:29.83" lane="-4535225#9_0" startPos="16.83" endPos="29.83" friendlyPos="true" name="Detmolder Str./Blissestr. (Berlin)"/>
    <busStop id="-4535225#0:29.12" lane="-4535225#0_0" startPos="16.12" endPos="29.12" friendlyPos="true" name="Birger-Forell-Platz (Berlin)"/>
    <busStop id="749896509#1:36.61" lane="749896509#1_0" startPos="23.61" endPos="36.61" friendlyPos="true" name="Berlin, Am Volkspark"/>
    <busStop id="4407115#2:60.59" lane="4407115#2_0" startPos="47.59" endPos="60.59" friendlyPos="true" name="U Blissestr. (Berlin)"/>
    <busStop id="205505802#1:16.04" lane="205505802#1_0" startPos="3.04" endPos="16.04" friendlyPos="true" name="U Fehrbelliner Platz (Berlin)"/>
    <busStop id="25204787#1:247.97" lane="25204787#1_0" startPos="234.97" endPos="247.97" friendlyPos="true" name="U Konstanzer Str. (Berlin)"/>
    <busStop id="4413754#2:73.64" lane="4413754#2_0" startPos="60.64" endPos="73.64" friendlyPos="true" name="Düsseldorfer Str. (Berlin)"/>
    <busStop id="4413755#0:20.19" lane="4413755#0_0" startPos="7.19" endPos="20.19" friendlyPos="true" name="Olivaer Platz/Xantener Str. (Berlin)"/>
    <busStop id="4490379#1:23.61" lane="4490379#1_0" startPos="10.61" endPos="23.61" friendlyPos="true" name="Olivaer Platz (Berlin)"/>
    <busStop id="-112442378#0:13.18" lane="-112442378#0_0" startPos="0.18" endPos="13.18" friendlyPos="true" name="Mommsenstr. (Berlin)"/>
    <busStop id="4490164#0:25.57" lane="4490164#0_0" startPos="12.57" endPos="25.57" friendlyPos="true" name="Berlin, Kantstr./Leibnizstr."/>
    <busStop id="-37036260#5:89.84" lane="-37036260#5_0" startPos="76.84" endPos="89.84" friendlyPos="true" name="Berlin, Goethestr."/>
    <busStop id="610848010#0:13.00" lane="610848010#0_0" startPos="0.00" endPos="13.00" friendlyPos="true" name="Bismarckstr./Leibnizstr. (Berlin)"/>
    <busStop id="-610848017:185.06" lane="-610848017_0" startPos="172.06" endPos="185.06" friendlyPos="true" name="Otto-Suhr-Allee/Leibnizstr. (Berlin)"/>
    <busStop id="24619225#1:152.23" lane="24619225#1_0" startPos="139.23" endPos="152.23" friendlyPos="true" name="Guerickestr. (Berlin)"/>
    <busStop id="136814134#2:54.09" lane="136814134#2_0" startPos="41.09" endPos="54.09" friendlyPos="true" name="Helmholtzstr. (Berlin)"/>
    <busStop id="689406334#2:177.17" lane="689406334#2_0" startPos="164.17" endPos="177.17" friendlyPos="true" name="Franklinstr. (Berlin)"/>
    <busStop id="24654539#1:43.74" lane="24654539#1_0" startPos="30.74" endPos="43.74" friendlyPos="true" name="Alt-Moabit/Gotzkowskystr. (Berlin)"/>
    <busStop id="-4571956#2:121.68" lane="-4571956#2_0" startPos="108.68" endPos="121.68" friendlyPos="true" name="Ottostr. (Berlin)"/>
    <busStop id="357842318#1:51.42" lane="357842318#1_0" startPos="38.42" endPos="51.42" friendlyPos="true" name="Alt-Moabit/Rathaus Tiergarten (Berlin)"/>
    <busStop id="-779929926:104.38" lane="-779929926_0" startPos="91.38" endPos="104.38" friendlyPos="true" name="U Turmstr. (Berlin)"/>
    <busStop id="30276434#1:62.43" lane="30276434#1_0" startPos="49.43" endPos="62.43" friendlyPos="true" name="Berlin, Turmstr./Lübecker Str."/>
    <busStop id="4368690:155.93" lane="4368690_0" startPos="142.93" endPos="155.93" friendlyPos="true" name="Mansfelder Str./Barstr. (Berlin)"/>
    <busStop id="472043215:25.52" lane="472043215_0" startPos="12.52" endPos="25.52" friendlyPos="true" name="Mansfelder Str./Barstr. (Berlin)"/>
    <busStop id="451723810:103.86" lane="451723810_0" startPos="90.86" endPos="103.86" friendlyPos="true" name="Rathaus Zehlendorf (Berlin)"/>
    <busStop id="451723810:121.35" lane="451723810_0" startPos="108.35" endPos="121.35" friendlyPos="true" name="Rathaus Zehlendorf (Berlin)"/>
    <busStop id="671403224#1:52.12" lane="671403224#1_0" startPos="39.12" endPos="52.12" friendlyPos="true" name="Berlin, Turmstr./Lübecker Str."/>
    <busStop id="497898320#1:76.73" lane="497898320#1_0" startPos="63.73" endPos="76.73" friendlyPos="true" name="U Turmstr. (Berlin)"/>
    <busStop id="42104627#3:49.36" lane="42104627#3_0" startPos="36.36" endPos="49.36" friendlyPos="true" name="Rathaus Tiergarten (Berlin)"/>
    <busStop id="4540284#2:39.54" lane="4540284#2_0" startPos="26.54" endPos="39.54" friendlyPos="true" name="Turmstr./Waldstr. (Berlin)"/>
    <busStop id="4540284#2:322.67" lane="4540284#2_0" startPos="309.67" endPos="322.67" friendlyPos="true" name="Alt-Moabit/Gotzkowskystr. (Berlin)"/>
    <busStop id="-689406334#2:28.26" lane="-689406334#2_0" startPos="15.26" endPos="28.26" friendlyPos="true" name="Franklinstr. (Berlin)"/>
    <busStop id="-4400974:52.81" lane="-4400974_0" startPos="39.81" endPos="52.81" friendlyPos="true" name="Helmholtzstr. (Berlin)"/>
    <busStop id="-24619225#1:26.99" lane="-24619225#1_0" startPos="13.99" endPos="26.99" friendlyPos="true" name="Guerickestr. (Berlin)"/>
    <busStop id="-24619225#0:146.76" lane="-24619225#0_0" startPos="133.76" endPos="146.76" friendlyPos="true" name="Otto-Suhr-Allee/Leibnizstr. (Berlin)"/>
    <busStop id="610847999#1:20.49" lane="610847999#1_0" startPos="7.49" endPos="20.49" friendlyPos="true" name="Bismarckstr./Leibnizstr. (Berlin)"/>
    <busStop id="37036260#0:171.20" lane="37036260#0_0" startPos="158.20" endPos="171.20" friendlyPos="true" name="Berlin, Goethestr."/>
    <busStop id="148670266#0:34.59" lane="148670266#0_0" startPos="21.59" endPos="34.59" friendlyPos="true" name="Berlin, Kantstr./Leibnizstr."/>
    <busStop id="112442378#5:13.00" lane="112442378#5_0" startPos="0.00" endPos="13.00" friendlyPos="true" name="Mommsenstr. (Berlin)"/>
    <busStop id="4491644#1:20.92" lane="4491644#1_0" startPos="7.92" endPos="20.92" friendlyPos="true" name="Olivaer Platz (Berlin)"/>
    <busStop id="-593476355#2:95.29" lane="-593476355#2_0" startPos="82.29" endPos="95.29" friendlyPos="true" name="Düsseldorfer Str. (Berlin)"/>
    <busStop id="25199263#1:71.00" lane="25199263#1_0" startPos="58.00" endPos="71.00" friendlyPos="true" name="U Konstanzer Str. (Berlin)"/>
    <busStop id="25204788#0:90.81" lane="25204788#0_0" startPos="77.81" endPos="90.81" friendlyPos="true" name="U Fehrbelliner Platz (Berlin)"/>
    <busStop id="4370506#1:37.81" lane="4370506#1_0" startPos="24.81" endPos="37.81" friendlyPos="true" name="U Blissestr. (Berlin)"/>
    <busStop id="4370506#2:116.66" lane="4370506#2_0" startPos="103.66" endPos="116.66" friendlyPos="true" name="Berlin, Am Volkspark"/>
    <busStop id="4535225#9:15.60" lane="4535225#9_0" startPos="2.60" endPos="15.60" friendlyPos="true" name="Birger-Forell-Platz (Berlin)"/>
    <busStop id="4535225#9:244.17" lane="4535225#9_0" startPos="231.17" endPos="244.17" friendlyPos="true" name="Detmolder Str./Blissestr. (Berlin)"/>
    <busStop id="332875218#1:38.39" lane="332875218#1_0" startPos="25.39" endPos="38.39" friendlyPos="true" name="Hanauer Str. (Berlin)"/>
    <busStop id="85127867#2:62.60" lane="85127867#2_0" startPos="49.60" endPos="62.60" friendlyPos="true" name="Deidesheimer Str. (Berlin)"/>
    <busStop id="25199729#0:38.57" lane="25199729#0_0" startPos="25.57" endPos="38.57" friendlyPos="true" name="Wiesbadener Str./Laubacher Str. (Berlin)"/>
    <busStop id="25199729#4:53.60" lane="25199729#4_0" startPos="40.60" endPos="53.60" friendlyPos="true" name="Laubenheimer Str. (Berlin)"/>
    <busStop id="284421836:159.64" lane="284421836_0" startPos="146.64" endPos="159.64" friendlyPos="true" name="U Breitenbachplatz (Berlin)"/>
    <busStop id="150684001#0:45.09" lane="150684001#0_0" startPos="32.09" endPos="45.09" friendlyPos="true" name="Schorlemerallee (Berlin)"/>
    <busStop id="158184091#2:291.14" lane="158184091#2_0" startPos="278.14" endPos="291.14" friendlyPos="true" name="Rohlfsstr. (Berlin)"/>
    <busStop id="4475955#1:32.69" lane="4475955#1_0" startPos="19.69" endPos="32.69" friendlyPos="true" name="Königin-Luise-Platz/Botanischer Garten (Berlin)"/>
    <busStop id="-25199872#13:65.64" lane="-25199872#13_0" startPos="52.64" endPos="65.64" friendlyPos="true" name="Limonenstr. (Berlin)"/>
    <busStop id="-25199872#11:120.37" lane="-25199872#11_0" startPos="107.37" endPos="120.37" friendlyPos="true" name="Altensteinstr./Fabeckstr. (Berlin)"/>
    <busStop id="-25199872#3:13.00" lane="-25199872#3_0" startPos="0.00" endPos="13.00" friendlyPos="true" name="Reichensteiner Weg (Berlin)"/>
    <busStop id="148670270#1:43.59" lane="148670270#1_0" startPos="30.59" endPos="43.59" friendlyPos="true" name="Unter den Eichen/Drakestr. (Berlin)"/>
    <busStop id="25199875#0:85.55" lane="25199875#0_0" startPos="72.55" endPos="85.55" friendlyPos="true" name="Von-Laue-Str. (Berlin)"/>
    <busStop id="4439811#0:13.00" lane="4439811#0_0" startPos="0.00" endPos="13.00" friendlyPos="true" name="Thielallee/Dahlemer Weg (Berlin)"/>
    <busStop id="4439811#1:349.30" lane="4439811#1_0" startPos="336.30" endPos="349.30" friendlyPos="true" name="Holländische Mühle (Berlin)"/>
    <busStop id="30243829#0:135.67" lane="30243829#0_0" startPos="122.67" endPos="135.67" friendlyPos="true" name="Winfriedstr. (Berlin)"/>
    <busStop id="30243829#3:57.46" lane="30243829#3_0" startPos="44.46" endPos="57.46" friendlyPos="true" name="Kleinaustr. (Berlin)"/>
    <busStop id="25199976#1:35.16" lane="25199976#1_0" startPos="22.16" endPos="35.16" friendlyPos="true" name="Berlin, Zehlendorf Eiche"/>
    <busStop id="-501432100:33.07" lane="-501432100_0" startPos="20.07" endPos="33.07" friendlyPos="true" name="Berlin, Zehlendorf Eiche"/>
    <busStop id="467184791#2:93.43" lane="467184791#2_0" startPos="80.43" endPos="93.43" friendlyPos="true" name="S Zehlendorf (Berlin)"/>
    <busStop id="112408882#0:58.94" lane="112408882#0_0" startPos="45.94" endPos="58.94" friendlyPos="true" name="Machnower Str./Berlepschstr. (Berlin)"/>
    <busStop id="112408882#2:134.16" lane="112408882#2_0" startPos="121.16" endPos="134.16" friendlyPos="true" name="Schrockstr. (Berlin)"/>
    <busStop id="112408882#8:24.65" lane="112408882#8_0" startPos="11.65" endPos="24.65" friendlyPos="true" name="Behring-Krankenhaus (Berlin)"/>
    <busStop id="112408882#10:15.58" lane="112408882#10_0" startPos="2.58" endPos="15.58" friendlyPos="true" name="Gutzmannstr. (Berlin)"/>
    <busStop id="-246049143#1:27.19" lane="-246049143#1_0" startPos="14.19" endPos="27.19" friendlyPos="true" name="Ludwigsfelder Str./Sachtlebenstr. (Berlin)"/>
    <busStop id="-157044919:40.49" lane="-157044919_0" startPos="27.49" endPos="40.49" friendlyPos="true" name="Nieritzweg (Berlin)"/>
    <busStop id="-157044919:395.61" lane="-157044919_0" startPos="382.61" endPos="395.61" friendlyPos="true" name="Windsteiner Weg (Berlin)"/>
    <busStop id="-140336718#0:45.84" lane="-140336718#0_0" startPos="32.84" endPos="45.84" friendlyPos="true" name="Sachtlebenstr. (Berlin)"/>
    <busStop id="688053569:13.00" lane="688053569_0" startPos="0.00" endPos="13.00" friendlyPos="true" name="Lindenhof (Berlin)"/>
    <busStop id="-185846837#1:13.00" lane="-185846837#1_0" startPos="0.00" endPos="13.00" friendlyPos="true" name="Lindenhof (Berlin)"/>
    <busStop id="-185846837#0:64.33" lane="-185846837#0_0" startPos="51.33" endPos="64.33" friendlyPos="true" name="Bessemerstr. (Berlin)"/>
    <busStop id="27734926:21.45" lane="27734926_0" startPos="8.45" endPos="21.45" friendlyPos="true" name="Alboinplatz (Berlin)"/>
    <busStop id="71834345#1:21.78" lane="71834345#1_0" startPos="8.78" endPos="21.78" friendlyPos="true" name="Egelingzeile (Berlin)"/>
    <busStop id="8008819#0:68.69" lane="8008819#0_0" startPos="55.69" endPos="68.69" friendlyPos="true" name="Eresburgstr. (Berlin)"/>
    <busStop id="529087271:104.30" lane="529087271_0" startPos="91.30" endPos="104.30" friendlyPos="true" name="Schöneberger Str. (Berlin)"/>
    <busStop id="95928368#0:67.99" lane="95928368#0_0" startPos="54.99" endPos="67.99" friendlyPos="true" name="Reichartstr. (Berlin)"/>
    <busStop id="25151775#1:43.54" lane="25151775#1_0" startPos="30.54" endPos="43.54" friendlyPos="true" name="S Südkreuz Bhf (Berlin)"/>
    <busStop id="4357821#1:28.59" lane="4357821#1_0" startPos="15.59" endPos="28.59" friendlyPos="true" name="Torgauer Str. (Berlin)"/>
    <busStop id="28497527:200.07" lane="28497527_0" startPos="187.07" endPos="200.07" friendlyPos="true" name="Leuthener Str. (Berlin)"/>
    <busStop id="-540264517:208.90" lane="-540264517_0" startPos="195.90" endPos="208.90" friendlyPos="true" name="Gustav-Müller-Platz (Berlin)"/>
    <busStop id="28497525#1:47.15" lane="28497525#1_0" startPos="34.15" endPos="47.15" friendlyPos="true" name="S Julius-Leber-Brücke (Berlin)"/>
    <busStop id="71282500#1:44.10" lane="71282500#1_0" startPos="31.10" endPos="44.10" friendlyPos="true" name="Richard-von-Weizsäcker-Platz (Berlin)"/>
    <busStop id="25121299:15.00" lane="25121299_0" startPos="2.00" endPos="15.00" friendlyPos="true" name="U Kleistpark (Berlin)"/>
    <busStop id="-508614985#2:41.56" lane="-508614985#2_0" startPos="28.56" endPos="41.56" friendlyPos="true" name="Goebenstr. (Berlin)"/>
    <busStop id="25121296#1:31.72" lane="25121296#1_0" startPos="18.72" endPos="31.72" friendlyPos="true" name="U Bülowstr. (Berlin)"/>
    <busStop id="127231792#1:24.08" lane="127231792#1_0" startPos="11.08" endPos="24.08" friendlyPos="true" name="U Nollendorfplatz (Berlin)"/>
    <busStop id="153151120#1:35.69" lane="153151120#1_0" startPos="22.69" endPos="35.69" friendlyPos="true" name="An der Urania (Berlin)"/>
    <busStop id="335396334#0:21.61" lane="335396334#0_0" startPos="8.61" endPos="21.61" friendlyPos="true" name="Schillstr. (Berlin)"/>
    <busStop id="206170865#1:16.48" lane="206170865#1_0" startPos="3.48" endPos="16.48" friendlyPos="true" name="Großer Stern (Berlin)"/>
    <busStop id="509357050#1:39.54" lane="509357050#1_0" startPos="26.54" endPos="39.54" friendlyPos="true" name="U Hansaplatz (Berlin)"/>
    <busStop id="24654525#1:116.43" lane="24654525#1_0" startPos="103.43" endPos="116.43" friendlyPos="true" name="Solinger Str. (Berlin)"/>
    <busStop id="24654525#6:152.49" lane="24654525#6_0" startPos="139.49" endPos="152.49" friendlyPos="true" name="Zinzendorfstr. (Berlin)"/>
    <busStop id="-4540284#2:28.82" lane="-4540284#2_0" startPos="15.82" endPos="28.82" friendlyPos="true" name="Alt-Moabit/Gotzkowskystr. (Berlin)"/>
    <busStop id="-203910771#6:40.43" lane="-203910771#6_0" startPos="27.43" endPos="40.43" friendlyPos="true" name="Berlin, Turmstr./Beusselstr."/>
    <busStop id="-203910771#6:332.40" lane="-203910771#6_0" startPos="319.40" endPos="332.40" friendlyPos="true" name="Wittstocker Str. (Berlin)"/>
    <busStop id="4705480#1:128.38" lane="4705480#1_0" startPos="115.38" endPos="128.38" friendlyPos="true" name="S Beusselstr. (Berlin)"/>
    <busStop id="4410448#3:232.45" lane="4410448#3_0" startPos="219.45" endPos="232.45" friendlyPos="true" name="Berliner Großmarkt (Berlin)"/>
    <busStop id="43961889:58.88" lane="43961889_0" startPos="45.88" endPos="58.88" friendlyPos="true" name="Seestr./Beusselstr. (Berlin)"/>
    <busStop id="328440056#1:15.49" lane="328440056#1_0" startPos="2.49" endPos="15.49" friendlyPos="true" name="Sylter Str. (Berlin)"/>
    <busStop id="120231000#1:35.45" lane="120231000#1_0" startPos="22.45" endPos="35.45" friendlyPos="true" name="Berlin, Virchow-Klinikum"/>
    <busStop id="375097982#1:29.12" lane="375097982#1_0" startPos="16.12" endPos="29.12" friendlyPos="true" name="Seestr./Amrumer Str. (Berlin)"/>
    <busStop id="375097975#1:156.71" lane="375097975#1_0" startPos="143.71" endPos="156.71" friendlyPos="true" name="Antwerpener Str. (Berlin)"/>
    <busStop id="28496796#1:47.72" lane="28496796#1_0" startPos="34.72" endPos="47.72" friendlyPos="true" name="U Seestr. (Berlin)"/>
    <busStop id="596976350#1:42.43" lane="596976350#1_0" startPos="29.43" endPos="42.43" friendlyPos="true" name="U Seestr. (Berlin)"/>
    <busStop id="338527886#1:21.60" lane="338527886#1_0" startPos="8.60" endPos="21.60" friendlyPos="true" name="Seestr./Amrumer Str. (Berlin)"/>
    <busStop id="338527880:54.81" lane="338527880_0" startPos="41.81" endPos="54.81" friendlyPos="true" name="Berlin, Virchow-Klinikum"/>
    <busStop id="375097989:24.25" lane="375097989_0" startPos="11.25" endPos="24.25" friendlyPos="true" name="Seestr./Beusselstr. (Berlin)"/>
    <busStop id="23213546#0:77.66" lane="23213546#0_0" startPos="64.66" endPos="77.66" friendlyPos="true" name="Berliner Großmarkt (Berlin)"/>
    <busStop id="190235234#2:55.31" lane="190235234#2_0" startPos="42.31" endPos="55.31" friendlyPos="true" name="S Beusselstr. (Berlin)"/>
    <busStop id="203910771#5:73.18" lane="203910771#5_0" startPos="60.18" endPos="73.18" friendlyPos="true" name="Wittstocker Str. (Berlin)"/>
    <busStop id="4410310#1:51.73" lane="4410310#1_0" startPos="38.73" endPos="51.73" friendlyPos="true" name="Berlin, Turmstr./Beusselstr."/>
    <busStop id="182603253#2:79.04" lane="182603253#2_0" startPos="66.04" endPos="79.04" friendlyPos="true" name="Zinzendorfstr. (Berlin)"/>
    <busStop id="182603253#7:128.28" lane="182603253#7_0" startPos="115.28" endPos="128.28" friendlyPos="true" name="Solinger Str. (Berlin)"/>
    <busStop id="32954835#0:66.14" lane="32954835#0_0" startPos="53.14" endPos="66.14" friendlyPos="true" name="U Hansaplatz (Berlin)"/>
    <busStop id="433868455#0:36.93" lane="433868455#0_0" startPos="23.93" endPos="36.93" friendlyPos="true" name="Großer Stern (Berlin)"/>
    <busStop id="153151222#1:26.90" lane="153151222#1_0" startPos="13.90" endPos="26.90" friendlyPos="true" name="Schillstr. (Berlin)"/>
    <busStop id="28497259#1:41.49" lane="28497259#1_0" startPos="28.49" endPos="41.49" friendlyPos="true" name="An der Urania (Berlin)"/>
    <busStop id="37535279#1:28.87" lane="37535279#1_0" startPos="15.87" endPos="28.87" friendlyPos="true" name="U Nollendorfplatz (Berlin)"/>
    <busStop id="96418266#0:26.46" lane="96418266#0_0" startPos="13.46" endPos="26.46" friendlyPos="true" name="U Nollendorfplatz (Berlin)"/>
    <busStop id="28497262#2:28.31" lane="28497262#2_0" startPos="15.31" endPos="28.31" friendlyPos="true" name="U Bülowstr. (Berlin)"/>
    <busStop id="67553868#0:114.82" lane="67553868#0_0" startPos="101.82" endPos="114.82" friendlyPos="true" name="Goebenstr. (Berlin)"/>
    <busStop id="25121298#0:22.88" lane="25121298#0_0" startPos="9.88" endPos="22.88" friendlyPos="true" name="U Kleistpark (Berlin)"/>
    <busStop id="67707649#1:78.63" lane="67707649#1_0" startPos="65.63" endPos="78.63" friendlyPos="true" name="Richard-von-Weizsäcker-Platz (Berlin)"/>
    <busStop id="13863285:45.16" lane="13863285_0" startPos="32.16" endPos="45.16" friendlyPos="true" name="S Julius-Leber-Brücke (Berlin)"/>
    <busStop id="140432615#2:217.59" lane="140432615#2_0" startPos="204.59" endPos="217.59" friendlyPos="true" name="Gustav-Müller-Platz (Berlin)"/>
    <busStop id="25152447:47.20" lane="25152447_0" startPos="34.20" endPos="47.20" friendlyPos="true" name="Leuthener Str. (Berlin)"/>
    <busStop id="28497530#2:33.77" lane="28497530#2_0" startPos="20.77" endPos="33.77" friendlyPos="true" name="Torgauer Str. (Berlin)"/>
    <busStop id="25151774#0:30.61" lane="25151774#0_0" startPos="17.61" endPos="30.61" friendlyPos="true" name="S Südkreuz Bhf (Berlin)"/>
    <busStop id="354645899#1:319.69" lane="354645899#1_0" startPos="306.69" endPos="319.69" friendlyPos="true" name="Reichartstr. (Berlin)"/>
    <busStop id="294265973#1:32.01" lane="294265973#1_0" startPos="19.01" endPos="32.01" friendlyPos="true" name="Schöneberger Str. (Berlin)"/>
    <busStop id="-8008819#0:21.16" lane="-8008819#0_0" startPos="8.16" endPos="21.16" friendlyPos="true" name="Eresburgstr. (Berlin)"/>